
---------- Begin Simulation Statistics ----------
sim_seconds                                  1.972834                       # Number of seconds simulated
sim_ticks                                1972833983000                       # Number of ticks simulated
final_tick                               1972833983000                       # Number of ticks from beginning of simulation (restored from checkpoints and never reset)
sim_freq                                 1000000000000                       # Frequency of simulated ticks
host_inst_rate                                1007512                       # Simulator instruction rate (inst/s)
host_op_rate                                  1613857                       # Simulator op (including micro ops) rate (op/s)
host_tick_rate                             2133407784                       # Simulator tick rate (ticks/s)
host_mem_usage                                 664980                       # Number of bytes of host memory used
host_seconds                                   924.73                       # Real time elapsed on the host
sim_insts                                   931679894                       # Number of instructions simulated
sim_ops                                    1492387760                       # Number of ops (including micro ops) simulated
system.voltage_domain.voltage                       1                       # Voltage in Volts
system.clk_domain.clock                          1000                       # Clock period in ticks
system.mem_ctrls.pwrStateResidencyTicks::UNDEFINED 1972833983000                       # Cumulative time (in ticks) in various power states
system.mem_ctrls.bytes_read::cpu.inst           22208                       # Number of bytes read from this memory
system.mem_ctrls.bytes_read::cpu.data         1094464                       # Number of bytes read from this memory
system.mem_ctrls.bytes_read::total            1116672                       # Number of bytes read from this memory
system.mem_ctrls.bytes_inst_read::cpu.inst        22208                       # Number of instructions bytes read from this memory
system.mem_ctrls.bytes_inst_read::total         22208                       # Number of instructions bytes read from this memory
system.mem_ctrls.bytes_written::writebacks        44224                       # Number of bytes written to this memory
system.mem_ctrls.bytes_written::total           44224                       # Number of bytes written to this memory
system.mem_ctrls.num_reads::cpu.inst              347                       # Number of read requests responded to by this memory
system.mem_ctrls.num_reads::cpu.data            17101                       # Number of read requests responded to by this memory
system.mem_ctrls.num_reads::total               17448                       # Number of read requests responded to by this memory
system.mem_ctrls.num_writes::writebacks           691                       # Number of write requests responded to by this memory
system.mem_ctrls.num_writes::total                691                       # Number of write requests responded to by this memory
system.mem_ctrls.bw_read::cpu.inst              11257                       # Total read bandwidth from this memory (bytes/s)
system.mem_ctrls.bw_read::cpu.data             554767                       # Total read bandwidth from this memory (bytes/s)
system.mem_ctrls.bw_read::total                566024                       # Total read bandwidth from this memory (bytes/s)
system.mem_ctrls.bw_inst_read::cpu.inst         11257                       # Instruction read bandwidth from this memory (bytes/s)
system.mem_ctrls.bw_inst_read::total            11257                       # Instruction read bandwidth from this memory (bytes/s)
system.mem_ctrls.bw_write::writebacks           22416                       # Write bandwidth from this memory (bytes/s)
system.mem_ctrls.bw_write::total                22416                       # Write bandwidth from this memory (bytes/s)
system.mem_ctrls.bw_total::writebacks           22416                       # Total bandwidth to/from this memory (bytes/s)
system.mem_ctrls.bw_total::cpu.inst             11257                       # Total bandwidth to/from this memory (bytes/s)
system.mem_ctrls.bw_total::cpu.data            554767                       # Total bandwidth to/from this memory (bytes/s)
system.mem_ctrls.bw_total::total               588441                       # Total bandwidth to/from this memory (bytes/s)
system.pwrStateResidencyTicks::UNDEFINED 1972833983000                       # Cumulative time (in ticks) in various power states
system.cpu_voltage_domain.voltage                   1                       # Voltage in Volts
system.cpu_clk_domain.clock                       500                       # Clock period in ticks
system.cpu.dtb.walker.pwrStateResidencyTicks::UNDEFINED 1972833983000                       # Cumulative time (in ticks) in various power states
system.cpu.dtb.rdAccesses                   382684105                       # TLB accesses on read requests
system.cpu.dtb.wrAccesses                    56342478                       # TLB accesses on write requests
system.cpu.dtb.rdMisses                       7936310                       # TLB misses on read requests
system.cpu.dtb.wrMisses                           272                       # TLB misses on write requests
system.cpu.apic_clk_domain.clock                 8000                       # Clock period in ticks
system.cpu.interrupts.pwrStateResidencyTicks::UNDEFINED 1972833983000                       # Cumulative time (in ticks) in various power states
system.cpu.itb.walker.pwrStateResidencyTicks::UNDEFINED 1972833983000                       # Cumulative time (in ticks) in various power states
system.cpu.itb.rdAccesses                           0                       # TLB accesses on read requests
system.cpu.itb.wrAccesses                  1449455617                       # TLB accesses on write requests
system.cpu.itb.rdMisses                             0                       # TLB misses on read requests
system.cpu.itb.wrMisses                            37                       # TLB misses on write requests
system.cpu.workload.numSyscalls                     9                       # Number of system calls
system.cpu.pwrStateResidencyTicks::ON    1972833983000                       # Cumulative time (in ticks) in various power states
system.cpu.numCycles                       3945667966                       # number of cpu cycles simulated
system.cpu.numWorkItemsStarted                      0                       # number of work items this cpu started
system.cpu.numWorkItemsCompleted                    0                       # number of work items this cpu completed
system.cpu.committedInsts                   931679894                       # Number of instructions committed
system.cpu.committedOps                    1492387760                       # Number of ops (including micro ops) committed
system.cpu.num_int_alu_accesses            1491881046                       # Number of integer alu accesses
system.cpu.num_fp_alu_accesses                   1943                       # Number of float alu accesses
system.cpu.num_vec_alu_accesses                     0                       # Number of vector alu accesses
system.cpu.num_func_calls                     1080242                       # number of times a function call or return occured
system.cpu.num_conditional_control_insts     29571458                       # number of instructions that are conditional controls
system.cpu.num_int_insts                   1491881046                       # number of integer instructions
system.cpu.num_fp_insts                          1943                       # number of float instructions
system.cpu.num_vec_insts                            0                       # number of vector instructions
system.cpu.num_int_register_reads          2934935000                       # number of times the integer registers were read
system.cpu.num_int_register_writes         1545692936                       # number of times the integer registers were written
system.cpu.num_fp_register_reads                 3767                       # number of times the floating registers were read
system.cpu.num_fp_register_writes                1480                       # number of times the floating registers were written
system.cpu.num_vec_register_reads                   0                       # number of times the vector registers were read
system.cpu.num_vec_register_writes                  0                       # number of times the vector registers were written
system.cpu.num_cc_register_reads            159199317                       # number of times the CC registers were read
system.cpu.num_cc_register_writes           523310522                       # number of times the CC registers were written
system.cpu.num_mem_refs                     439026579                       # number of memory refs
system.cpu.num_load_insts                   382684101                       # Number of load instructions
system.cpu.num_store_insts                   56342478                       # Number of store instructions
system.cpu.num_idle_cycles                          0                       # Number of idle cycles
system.cpu.num_busy_cycles                 3945667966                       # Number of busy cycles
system.cpu.not_idle_fraction                        1                       # Percentage of non-idle cycles
system.cpu.idle_fraction                            0                       # Percentage of idle cycles
system.cpu.Branches                          30742410                       # Number of branches fetched
system.cpu.op_class::No_OpClass                505293      0.03%      0.03% # Class of executed instruction
system.cpu.op_class::IntAlu                 915024142     61.31%     61.35% # Class of executed instruction
system.cpu.op_class::IntMult                135270004      9.06%     70.41% # Class of executed instruction
system.cpu.op_class::IntDiv                   2560782      0.17%     70.58% # Class of executed instruction
system.cpu.op_class::FloatAdd                      10      0.00%     70.58% # Class of executed instruction
system.cpu.op_class::FloatCmp                       0      0.00%     70.58% # Class of executed instruction
system.cpu.op_class::FloatCvt                       0      0.00%     70.58% # Class of executed instruction
system.cpu.op_class::FloatMult                      0      0.00%     70.58% # Class of executed instruction
system.cpu.op_class::FloatMultAcc                   0      0.00%     70.58% # Class of executed instruction
system.cpu.op_class::FloatDiv                       0      0.00%     70.58% # Class of executed instruction
system.cpu.op_class::FloatMisc                      0      0.00%     70.58% # Class of executed instruction
system.cpu.op_class::FloatSqrt                      0      0.00%     70.58% # Class of executed instruction
system.cpu.op_class::SimdAdd                      374      0.00%     70.58% # Class of executed instruction
system.cpu.op_class::SimdAddAcc                     0      0.00%     70.58% # Class of executed instruction
system.cpu.op_class::SimdAlu                       68      0.00%     70.58% # Class of executed instruction
system.cpu.op_class::SimdCmp                        0      0.00%     70.58% # Class of executed instruction
system.cpu.op_class::SimdCvt                      108      0.00%     70.58% # Class of executed instruction
system.cpu.op_class::SimdMisc                     214      0.00%     70.58% # Class of executed instruction
system.cpu.op_class::SimdMult                       0      0.00%     70.58% # Class of executed instruction
system.cpu.op_class::SimdMultAcc                    0      0.00%     70.58% # Class of executed instruction
system.cpu.op_class::SimdShift                    186      0.00%     70.58% # Class of executed instruction
system.cpu.op_class::SimdShiftAcc                   0      0.00%     70.58% # Class of executed instruction
system.cpu.op_class::SimdSqrt                       0      0.00%     70.58% # Class of executed instruction
system.cpu.op_class::SimdFloatAdd                   0      0.00%     70.58% # Class of executed instruction
system.cpu.op_class::SimdFloatAlu                   0      0.00%     70.58% # Class of executed instruction
system.cpu.op_class::SimdFloatCmp                   0      0.00%     70.58% # Class of executed instruction
system.cpu.op_class::SimdFloatCvt                   0      0.00%     70.58% # Class of executed instruction
system.cpu.op_class::SimdFloatDiv                   0      0.00%     70.58% # Class of executed instruction
system.cpu.op_class::SimdFloatMisc                  0      0.00%     70.58% # Class of executed instruction
system.cpu.op_class::SimdFloatMult                  0      0.00%     70.58% # Class of executed instruction
system.cpu.op_class::SimdFloatMultAcc               0      0.00%     70.58% # Class of executed instruction
system.cpu.op_class::SimdFloatSqrt                  0      0.00%     70.58% # Class of executed instruction
system.cpu.op_class::MemRead                382684045     25.64%     96.22% # Class of executed instruction
system.cpu.op_class::MemWrite                56342063      3.78%    100.00% # Class of executed instruction
system.cpu.op_class::FloatMemRead                  56      0.00%    100.00% # Class of executed instruction
system.cpu.op_class::FloatMemWrite                415      0.00%    100.00% # Class of executed instruction
system.cpu.op_class::IprAccess                      0      0.00%    100.00% # Class of executed instruction
system.cpu.op_class::InstPrefetch                   0      0.00%    100.00% # Class of executed instruction
system.cpu.op_class::total                 1492387760                       # Class of executed instruction
system.cpu.dcache.tags.pwrStateResidencyTicks::UNDEFINED 1972833983000                       # Cumulative time (in ticks) in various power states
system.cpu.dcache.tags.tagsinuse           511.895242                       # Cycle average of tags in use
system.cpu.dcache.tags.total_refs           439026583                       # Total number of references to valid blocks.
system.cpu.dcache.tags.sampled_refs           3126567                       # Sample count of references to valid blocks.
system.cpu.dcache.tags.avg_refs            140.418095                       # Average number of references to valid blocks.
system.cpu.dcache.tags.warmup_cycle            765000                       # Cycle when the warmup percentage was hit.
system.cpu.dcache.tags.occ_blocks::cpu.data   511.895242                       # Average occupied blocks per requestor
system.cpu.dcache.tags.occ_percent::cpu.data     0.999795                       # Average percentage of cache occupancy
system.cpu.dcache.tags.occ_percent::total     0.999795                       # Average percentage of cache occupancy
system.cpu.dcache.tags.occ_task_id_blocks::1024          512                       # Occupied blocks per task id
system.cpu.dcache.tags.age_task_id_blocks_1024::0           10                       # Occupied blocks per task id
system.cpu.dcache.tags.age_task_id_blocks_1024::1           54                       # Occupied blocks per task id
system.cpu.dcache.tags.age_task_id_blocks_1024::2          447                       # Occupied blocks per task id
system.cpu.dcache.tags.age_task_id_blocks_1024::4            1                       # Occupied blocks per task id
system.cpu.dcache.tags.occ_task_id_percent::1024            1                       # Percentage of cache occupancy per task id
system.cpu.dcache.tags.tag_accesses         881179733                       # Number of tag accesses
system.cpu.dcache.tags.data_accesses        881179733                       # Number of data accesses
system.cpu.dcache.pwrStateResidencyTicks::UNDEFINED 1972833983000                       # Cumulative time (in ticks) in various power states
system.cpu.dcache.ReadReq_hits::cpu.data    379577677                       # number of ReadReq hits
system.cpu.dcache.ReadReq_hits::total       379577677                       # number of ReadReq hits
system.cpu.dcache.WriteReq_hits::cpu.data     56322339                       # number of WriteReq hits
system.cpu.dcache.WriteReq_hits::total       56322339                       # number of WriteReq hits
system.cpu.dcache.demand_hits::cpu.data     435900016                       # number of demand (read+write) hits
system.cpu.dcache.demand_hits::total        435900016                       # number of demand (read+write) hits
system.cpu.dcache.overall_hits::cpu.data    435900016                       # number of overall hits
system.cpu.dcache.overall_hits::total       435900016                       # number of overall hits
system.cpu.dcache.ReadReq_misses::cpu.data      3106428                       # number of ReadReq misses
system.cpu.dcache.ReadReq_misses::total       3106428                       # number of ReadReq misses
system.cpu.dcache.WriteReq_misses::cpu.data        20139                       # number of WriteReq misses
system.cpu.dcache.WriteReq_misses::total        20139                       # number of WriteReq misses
system.cpu.dcache.demand_misses::cpu.data      3126567                       # number of demand (read+write) misses
system.cpu.dcache.demand_misses::total        3126567                       # number of demand (read+write) misses
system.cpu.dcache.overall_misses::cpu.data      3126567                       # number of overall misses
system.cpu.dcache.overall_misses::total       3126567                       # number of overall misses
system.cpu.dcache.ReadReq_miss_latency::cpu.data  86134699000                       # number of ReadReq miss cycles
system.cpu.dcache.ReadReq_miss_latency::total  86134699000                       # number of ReadReq miss cycles
system.cpu.dcache.WriteReq_miss_latency::cpu.data   1280319500                       # number of WriteReq miss cycles
system.cpu.dcache.WriteReq_miss_latency::total   1280319500                       # number of WriteReq miss cycles
system.cpu.dcache.demand_miss_latency::cpu.data  87415018500                       # number of demand (read+write) miss cycles
system.cpu.dcache.demand_miss_latency::total  87415018500                       # number of demand (read+write) miss cycles
system.cpu.dcache.overall_miss_latency::cpu.data  87415018500                       # number of overall miss cycles
system.cpu.dcache.overall_miss_latency::total  87415018500                       # number of overall miss cycles
system.cpu.dcache.ReadReq_accesses::cpu.data    382684105                       # number of ReadReq accesses(hits+misses)
system.cpu.dcache.ReadReq_accesses::total    382684105                       # number of ReadReq accesses(hits+misses)
system.cpu.dcache.WriteReq_accesses::cpu.data     56342478                       # number of WriteReq accesses(hits+misses)
system.cpu.dcache.WriteReq_accesses::total     56342478                       # number of WriteReq accesses(hits+misses)
system.cpu.dcache.demand_accesses::cpu.data    439026583                       # number of demand (read+write) accesses
system.cpu.dcache.demand_accesses::total    439026583                       # number of demand (read+write) accesses
system.cpu.dcache.overall_accesses::cpu.data    439026583                       # number of overall (read+write) accesses
system.cpu.dcache.overall_accesses::total    439026583                       # number of overall (read+write) accesses
system.cpu.dcache.ReadReq_miss_rate::cpu.data     0.008117                       # miss rate for ReadReq accesses
system.cpu.dcache.ReadReq_miss_rate::total     0.008117                       # miss rate for ReadReq accesses
system.cpu.dcache.WriteReq_miss_rate::cpu.data     0.000357                       # miss rate for WriteReq accesses
system.cpu.dcache.WriteReq_miss_rate::total     0.000357                       # miss rate for WriteReq accesses
system.cpu.dcache.demand_miss_rate::cpu.data     0.007122                       # miss rate for demand accesses
system.cpu.dcache.demand_miss_rate::total     0.007122                       # miss rate for demand accesses
system.cpu.dcache.overall_miss_rate::cpu.data     0.007122                       # miss rate for overall accesses
system.cpu.dcache.overall_miss_rate::total     0.007122                       # miss rate for overall accesses
system.cpu.dcache.ReadReq_avg_miss_latency::cpu.data 27727.891649                       # average ReadReq miss latency
system.cpu.dcache.ReadReq_avg_miss_latency::total 27727.891649                       # average ReadReq miss latency
system.cpu.dcache.WriteReq_avg_miss_latency::cpu.data 63574.134763                       # average WriteReq miss latency
system.cpu.dcache.WriteReq_avg_miss_latency::total 63574.134763                       # average WriteReq miss latency
system.cpu.dcache.demand_avg_miss_latency::cpu.data 27958.786266                       # average overall miss latency
system.cpu.dcache.demand_avg_miss_latency::total 27958.786266                       # average overall miss latency
system.cpu.dcache.overall_avg_miss_latency::cpu.data 27958.786266                       # average overall miss latency
system.cpu.dcache.overall_avg_miss_latency::total 27958.786266                       # average overall miss latency
system.cpu.dcache.blocked_cycles::no_mshrs            0                       # number of cycles access was blocked
system.cpu.dcache.blocked_cycles::no_targets            0                       # number of cycles access was blocked
system.cpu.dcache.blocked::no_mshrs                 0                       # number of cycles access was blocked
system.cpu.dcache.blocked::no_targets               0                       # number of cycles access was blocked
system.cpu.dcache.avg_blocked_cycles::no_mshrs          nan                       # average number of cycles each access was blocked
system.cpu.dcache.avg_blocked_cycles::no_targets          nan                       # average number of cycles each access was blocked
system.cpu.dcache.writebacks::writebacks      1433048                       # number of writebacks
system.cpu.dcache.writebacks::total           1433048                       # number of writebacks
system.cpu.dcache.ReadReq_mshr_misses::cpu.data      3106428                       # number of ReadReq MSHR misses
system.cpu.dcache.ReadReq_mshr_misses::total      3106428                       # number of ReadReq MSHR misses
system.cpu.dcache.WriteReq_mshr_misses::cpu.data        20139                       # number of WriteReq MSHR misses
system.cpu.dcache.WriteReq_mshr_misses::total        20139                       # number of WriteReq MSHR misses
system.cpu.dcache.demand_mshr_misses::cpu.data      3126567                       # number of demand (read+write) MSHR misses
system.cpu.dcache.demand_mshr_misses::total      3126567                       # number of demand (read+write) MSHR misses
system.cpu.dcache.overall_mshr_misses::cpu.data      3126567                       # number of overall MSHR misses
system.cpu.dcache.overall_mshr_misses::total      3126567                       # number of overall MSHR misses
system.cpu.dcache.ReadReq_mshr_miss_latency::cpu.data  83028271000                       # number of ReadReq MSHR miss cycles
system.cpu.dcache.ReadReq_mshr_miss_latency::total  83028271000                       # number of ReadReq MSHR miss cycles
system.cpu.dcache.WriteReq_mshr_miss_latency::cpu.data   1260180500                       # number of WriteReq MSHR miss cycles
system.cpu.dcache.WriteReq_mshr_miss_latency::total   1260180500                       # number of WriteReq MSHR miss cycles
system.cpu.dcache.demand_mshr_miss_latency::cpu.data  84288451500                       # number of demand (read+write) MSHR miss cycles
system.cpu.dcache.demand_mshr_miss_latency::total  84288451500                       # number of demand (read+write) MSHR miss cycles
system.cpu.dcache.overall_mshr_miss_latency::cpu.data  84288451500                       # number of overall MSHR miss cycles
system.cpu.dcache.overall_mshr_miss_latency::total  84288451500                       # number of overall MSHR miss cycles
system.cpu.dcache.ReadReq_mshr_miss_rate::cpu.data     0.008117                       # mshr miss rate for ReadReq accesses
system.cpu.dcache.ReadReq_mshr_miss_rate::total     0.008117                       # mshr miss rate for ReadReq accesses
system.cpu.dcache.WriteReq_mshr_miss_rate::cpu.data     0.000357                       # mshr miss rate for WriteReq accesses
system.cpu.dcache.WriteReq_mshr_miss_rate::total     0.000357                       # mshr miss rate for WriteReq accesses
system.cpu.dcache.demand_mshr_miss_rate::cpu.data     0.007122                       # mshr miss rate for demand accesses
system.cpu.dcache.demand_mshr_miss_rate::total     0.007122                       # mshr miss rate for demand accesses
system.cpu.dcache.overall_mshr_miss_rate::cpu.data     0.007122                       # mshr miss rate for overall accesses
system.cpu.dcache.overall_mshr_miss_rate::total     0.007122                       # mshr miss rate for overall accesses
system.cpu.dcache.ReadReq_avg_mshr_miss_latency::cpu.data 26727.891649                       # average ReadReq mshr miss latency
system.cpu.dcache.ReadReq_avg_mshr_miss_latency::total 26727.891649                       # average ReadReq mshr miss latency
system.cpu.dcache.WriteReq_avg_mshr_miss_latency::cpu.data 62574.134763                       # average WriteReq mshr miss latency
system.cpu.dcache.WriteReq_avg_mshr_miss_latency::total 62574.134763                       # average WriteReq mshr miss latency
system.cpu.dcache.demand_avg_mshr_miss_latency::cpu.data 26958.786266                       # average overall mshr miss latency
system.cpu.dcache.demand_avg_mshr_miss_latency::total 26958.786266                       # average overall mshr miss latency
system.cpu.dcache.overall_avg_mshr_miss_latency::cpu.data 26958.786266                       # average overall mshr miss latency
system.cpu.dcache.overall_avg_mshr_miss_latency::total 26958.786266                       # average overall mshr miss latency
system.cpu.dcache.replacements                3126055                       # number of replacements
system.cpu.dtb_walker_cache.tags.pwrStateResidencyTicks::UNDEFINED 1972833983000                       # Cumulative time (in ticks) in various power states
system.cpu.dtb_walker_cache.tags.tagsinuse            0                       # Cycle average of tags in use
system.cpu.dtb_walker_cache.tags.total_refs            0                       # Total number of references to valid blocks.
system.cpu.dtb_walker_cache.tags.sampled_refs            0                       # Sample count of references to valid blocks.
system.cpu.dtb_walker_cache.tags.avg_refs          nan                       # Average number of references to valid blocks.
system.cpu.dtb_walker_cache.tags.warmup_cycle            0                       # Cycle when the warmup percentage was hit.
system.cpu.dtb_walker_cache.tags.tag_accesses            0                       # Number of tag accesses
system.cpu.dtb_walker_cache.tags.data_accesses            0                       # Number of data accesses
system.cpu.dtb_walker_cache.pwrStateResidencyTicks::UNDEFINED 1972833983000                       # Cumulative time (in ticks) in various power states
system.cpu.dtb_walker_cache.blocked_cycles::no_mshrs            0                       # number of cycles access was blocked
system.cpu.dtb_walker_cache.blocked_cycles::no_targets            0                       # number of cycles access was blocked
system.cpu.dtb_walker_cache.blocked::no_mshrs            0                       # number of cycles access was blocked
system.cpu.dtb_walker_cache.blocked::no_targets            0                       # number of cycles access was blocked
system.cpu.dtb_walker_cache.avg_blocked_cycles::no_mshrs          nan                       # average number of cycles each access was blocked
system.cpu.dtb_walker_cache.avg_blocked_cycles::no_targets          nan                       # average number of cycles each access was blocked
system.cpu.dtb_walker_cache.replacements            0                       # number of replacements
system.cpu.icache.tags.pwrStateResidencyTicks::UNDEFINED 1972833983000                       # Cumulative time (in ticks) in various power states
system.cpu.icache.tags.tagsinuse           279.947170                       # Cycle average of tags in use
system.cpu.icache.tags.total_refs          1449455617                       # Total number of references to valid blocks.
system.cpu.icache.tags.sampled_refs               347                       # Sample count of references to valid blocks.
system.cpu.icache.tags.avg_refs          4177105.524496                       # Average number of references to valid blocks.
system.cpu.icache.tags.warmup_cycle            445000                       # Cycle when the warmup percentage was hit.
system.cpu.icache.tags.occ_blocks::cpu.inst   279.947170                       # Average occupied blocks per requestor
system.cpu.icache.tags.occ_percent::cpu.inst     0.546772                       # Average percentage of cache occupancy
system.cpu.icache.tags.occ_percent::total     0.546772                       # Average percentage of cache occupancy
system.cpu.icache.tags.occ_task_id_blocks::1024          309                       # Occupied blocks per task id
system.cpu.icache.tags.age_task_id_blocks_1024::0           12                       # Occupied blocks per task id
system.cpu.icache.tags.age_task_id_blocks_1024::1           27                       # Occupied blocks per task id
system.cpu.icache.tags.age_task_id_blocks_1024::4          270                       # Occupied blocks per task id
system.cpu.icache.tags.occ_task_id_percent::1024     0.603516                       # Percentage of cache occupancy per task id
system.cpu.icache.tags.tag_accesses        2898911581                       # Number of tag accesses
system.cpu.icache.tags.data_accesses       2898911581                       # Number of data accesses
system.cpu.icache.pwrStateResidencyTicks::UNDEFINED 1972833983000                       # Cumulative time (in ticks) in various power states
system.cpu.icache.ReadReq_hits::cpu.inst   1449455270                       # number of ReadReq hits
system.cpu.icache.ReadReq_hits::total      1449455270                       # number of ReadReq hits
system.cpu.icache.demand_hits::cpu.inst    1449455270                       # number of demand (read+write) hits
system.cpu.icache.demand_hits::total       1449455270                       # number of demand (read+write) hits
system.cpu.icache.overall_hits::cpu.inst   1449455270                       # number of overall hits
system.cpu.icache.overall_hits::total      1449455270                       # number of overall hits
system.cpu.icache.ReadReq_misses::cpu.inst          347                       # number of ReadReq misses
system.cpu.icache.ReadReq_misses::total           347                       # number of ReadReq misses
system.cpu.icache.demand_misses::cpu.inst          347                       # number of demand (read+write) misses
system.cpu.icache.demand_misses::total            347                       # number of demand (read+write) misses
system.cpu.icache.overall_misses::cpu.inst          347                       # number of overall misses
system.cpu.icache.overall_misses::total           347                       # number of overall misses
system.cpu.icache.ReadReq_miss_latency::cpu.inst     63683000                       # number of ReadReq miss cycles
system.cpu.icache.ReadReq_miss_latency::total     63683000                       # number of ReadReq miss cycles
system.cpu.icache.demand_miss_latency::cpu.inst     63683000                       # number of demand (read+write) miss cycles
system.cpu.icache.demand_miss_latency::total     63683000                       # number of demand (read+write) miss cycles
system.cpu.icache.overall_miss_latency::cpu.inst     63683000                       # number of overall miss cycles
system.cpu.icache.overall_miss_latency::total     63683000                       # number of overall miss cycles
system.cpu.icache.ReadReq_accesses::cpu.inst   1449455617                       # number of ReadReq accesses(hits+misses)
system.cpu.icache.ReadReq_accesses::total   1449455617                       # number of ReadReq accesses(hits+misses)
system.cpu.icache.demand_accesses::cpu.inst   1449455617                       # number of demand (read+write) accesses
system.cpu.icache.demand_accesses::total   1449455617                       # number of demand (read+write) accesses
system.cpu.icache.overall_accesses::cpu.inst   1449455617                       # number of overall (read+write) accesses
system.cpu.icache.overall_accesses::total   1449455617                       # number of overall (read+write) accesses
system.cpu.icache.ReadReq_miss_rate::cpu.inst     0.000000                       # miss rate for ReadReq accesses
system.cpu.icache.ReadReq_miss_rate::total     0.000000                       # miss rate for ReadReq accesses
system.cpu.icache.demand_miss_rate::cpu.inst     0.000000                       # miss rate for demand accesses
system.cpu.icache.demand_miss_rate::total     0.000000                       # miss rate for demand accesses
system.cpu.icache.overall_miss_rate::cpu.inst     0.000000                       # miss rate for overall accesses
system.cpu.icache.overall_miss_rate::total     0.000000                       # miss rate for overall accesses
system.cpu.icache.ReadReq_avg_miss_latency::cpu.inst 183524.495677                       # average ReadReq miss latency
system.cpu.icache.ReadReq_avg_miss_latency::total 183524.495677                       # average ReadReq miss latency
system.cpu.icache.demand_avg_miss_latency::cpu.inst 183524.495677                       # average overall miss latency
system.cpu.icache.demand_avg_miss_latency::total 183524.495677                       # average overall miss latency
system.cpu.icache.overall_avg_miss_latency::cpu.inst 183524.495677                       # average overall miss latency
system.cpu.icache.overall_avg_miss_latency::total 183524.495677                       # average overall miss latency
system.cpu.icache.blocked_cycles::no_mshrs            0                       # number of cycles access was blocked
system.cpu.icache.blocked_cycles::no_targets            0                       # number of cycles access was blocked
system.cpu.icache.blocked::no_mshrs                 0                       # number of cycles access was blocked
system.cpu.icache.blocked::no_targets               0                       # number of cycles access was blocked
system.cpu.icache.avg_blocked_cycles::no_mshrs          nan                       # average number of cycles each access was blocked
system.cpu.icache.avg_blocked_cycles::no_targets          nan                       # average number of cycles each access was blocked
system.cpu.icache.writebacks::writebacks           38                       # number of writebacks
system.cpu.icache.writebacks::total                38                       # number of writebacks
system.cpu.icache.ReadReq_mshr_misses::cpu.inst          347                       # number of ReadReq MSHR misses
system.cpu.icache.ReadReq_mshr_misses::total          347                       # number of ReadReq MSHR misses
system.cpu.icache.demand_mshr_misses::cpu.inst          347                       # number of demand (read+write) MSHR misses
system.cpu.icache.demand_mshr_misses::total          347                       # number of demand (read+write) MSHR misses
system.cpu.icache.overall_mshr_misses::cpu.inst          347                       # number of overall MSHR misses
system.cpu.icache.overall_mshr_misses::total          347                       # number of overall MSHR misses
system.cpu.icache.ReadReq_mshr_miss_latency::cpu.inst     63336000                       # number of ReadReq MSHR miss cycles
system.cpu.icache.ReadReq_mshr_miss_latency::total     63336000                       # number of ReadReq MSHR miss cycles
system.cpu.icache.demand_mshr_miss_latency::cpu.inst     63336000                       # number of demand (read+write) MSHR miss cycles
system.cpu.icache.demand_mshr_miss_latency::total     63336000                       # number of demand (read+write) MSHR miss cycles
system.cpu.icache.overall_mshr_miss_latency::cpu.inst     63336000                       # number of overall MSHR miss cycles
system.cpu.icache.overall_mshr_miss_latency::total     63336000                       # number of overall MSHR miss cycles
system.cpu.icache.ReadReq_mshr_miss_rate::cpu.inst     0.000000                       # mshr miss rate for ReadReq accesses
system.cpu.icache.ReadReq_mshr_miss_rate::total     0.000000                       # mshr miss rate for ReadReq accesses
system.cpu.icache.demand_mshr_miss_rate::cpu.inst     0.000000                       # mshr miss rate for demand accesses
system.cpu.icache.demand_mshr_miss_rate::total     0.000000                       # mshr miss rate for demand accesses
system.cpu.icache.overall_mshr_miss_rate::cpu.inst     0.000000                       # mshr miss rate for overall accesses
system.cpu.icache.overall_mshr_miss_rate::total     0.000000                       # mshr miss rate for overall accesses
system.cpu.icache.ReadReq_avg_mshr_miss_latency::cpu.inst 182524.495677                       # average ReadReq mshr miss latency
system.cpu.icache.ReadReq_avg_mshr_miss_latency::total 182524.495677                       # average ReadReq mshr miss latency
system.cpu.icache.demand_avg_mshr_miss_latency::cpu.inst 182524.495677                       # average overall mshr miss latency
system.cpu.icache.demand_avg_mshr_miss_latency::total 182524.495677                       # average overall mshr miss latency
system.cpu.icache.overall_avg_mshr_miss_latency::cpu.inst 182524.495677                       # average overall mshr miss latency
system.cpu.icache.overall_avg_mshr_miss_latency::total 182524.495677                       # average overall mshr miss latency
system.cpu.icache.replacements                     38                       # number of replacements
system.cpu.itb_walker_cache.tags.pwrStateResidencyTicks::UNDEFINED 1972833983000                       # Cumulative time (in ticks) in various power states
system.cpu.itb_walker_cache.tags.tagsinuse            0                       # Cycle average of tags in use
system.cpu.itb_walker_cache.tags.total_refs            0                       # Total number of references to valid blocks.
system.cpu.itb_walker_cache.tags.sampled_refs            0                       # Sample count of references to valid blocks.
system.cpu.itb_walker_cache.tags.avg_refs          nan                       # Average number of references to valid blocks.
system.cpu.itb_walker_cache.tags.warmup_cycle            0                       # Cycle when the warmup percentage was hit.
system.cpu.itb_walker_cache.tags.tag_accesses            0                       # Number of tag accesses
system.cpu.itb_walker_cache.tags.data_accesses            0                       # Number of data accesses
system.cpu.itb_walker_cache.pwrStateResidencyTicks::UNDEFINED 1972833983000                       # Cumulative time (in ticks) in various power states
system.cpu.itb_walker_cache.blocked_cycles::no_mshrs            0                       # number of cycles access was blocked
system.cpu.itb_walker_cache.blocked_cycles::no_targets            0                       # number of cycles access was blocked
system.cpu.itb_walker_cache.blocked::no_mshrs            0                       # number of cycles access was blocked
system.cpu.itb_walker_cache.blocked::no_targets            0                       # number of cycles access was blocked
system.cpu.itb_walker_cache.avg_blocked_cycles::no_mshrs          nan                       # average number of cycles each access was blocked
system.cpu.itb_walker_cache.avg_blocked_cycles::no_targets          nan                       # average number of cycles each access was blocked
system.cpu.itb_walker_cache.replacements            0                       # number of replacements
system.l2.tags.pwrStateResidencyTicks::UNDEFINED 1972833983000                       # Cumulative time (in ticks) in various power states
system.l2.tags.tagsinuse                  2046.622640                       # Cycle average of tags in use
system.l2.tags.total_refs                     6253007                       # Total number of references to valid blocks.
system.l2.tags.sampled_refs                   1710856                       # Sample count of references to valid blocks.
system.l2.tags.avg_refs                      3.654900                       # Average number of references to valid blocks.
system.l2.tags.warmup_cycle                    434500                       # Cycle when the warmup percentage was hit.
system.l2.tags.occ_blocks::writebacks        0.006901                       # Average occupied blocks per requestor
system.l2.tags.occ_blocks::cpu.inst          0.502285                       # Average occupied blocks per requestor
system.l2.tags.occ_blocks::cpu.data       2046.113454                       # Average occupied blocks per requestor
system.l2.tags.occ_percent::writebacks       0.000003                       # Average percentage of cache occupancy
system.l2.tags.occ_percent::cpu.inst         0.000245                       # Average percentage of cache occupancy
system.l2.tags.occ_percent::cpu.data         0.999079                       # Average percentage of cache occupancy
system.l2.tags.occ_percent::total            0.999327                       # Average percentage of cache occupancy
system.l2.tags.occ_task_id_blocks::1024          2048                       # Occupied blocks per task id
system.l2.tags.age_task_id_blocks_1024::0           27                       # Occupied blocks per task id
system.l2.tags.age_task_id_blocks_1024::1           75                       # Occupied blocks per task id
system.l2.tags.age_task_id_blocks_1024::2          799                       # Occupied blocks per task id
system.l2.tags.age_task_id_blocks_1024::3         1146                       # Occupied blocks per task id
system.l2.tags.age_task_id_blocks_1024::4            1                       # Occupied blocks per task id
system.l2.tags.occ_task_id_percent::1024            1                       # Percentage of cache occupancy per task id
system.l2.tags.tag_accesses                  51734912                       # Number of tag accesses
system.l2.tags.data_accesses                 51734912                       # Number of data accesses
system.l2.pwrStateResidencyTicks::UNDEFINED 1972833983000                       # Cumulative time (in ticks) in various power states
system.l2.WritebackDirty_hits::writebacks      1433048                       # number of WritebackDirty hits
system.l2.WritebackDirty_hits::total          1433048                       # number of WritebackDirty hits
system.l2.WritebackClean_hits::writebacks           38                       # number of WritebackClean hits
system.l2.WritebackClean_hits::total               38                       # number of WritebackClean hits
system.l2.ReadExReq_hits::cpu.data               3145                       # number of ReadExReq hits
system.l2.ReadExReq_hits::total                  3145                       # number of ReadExReq hits
system.l2.ReadSharedReq_hits::cpu.data        1412931                       # number of ReadSharedReq hits
system.l2.ReadSharedReq_hits::total           1412931                       # number of ReadSharedReq hits
system.l2.demand_hits::cpu.data               1416076                       # number of demand (read+write) hits
system.l2.demand_hits::total                  1416076                       # number of demand (read+write) hits
system.l2.overall_hits::cpu.data              1416076                       # number of overall hits
system.l2.overall_hits::total                 1416076                       # number of overall hits
system.l2.ReadExReq_misses::cpu.data            16994                       # number of ReadExReq misses
system.l2.ReadExReq_misses::total               16994                       # number of ReadExReq misses
system.l2.ReadCleanReq_misses::cpu.inst           347                       # number of ReadCleanReq misses
system.l2.ReadCleanReq_misses::total              347                       # number of ReadCleanReq misses
system.l2.ReadSharedReq_misses::cpu.data      1693497                       # number of ReadSharedReq misses
system.l2.ReadSharedReq_misses::total         1693497                       # number of ReadSharedReq misses
system.l2.demand_misses::cpu.inst                 347                       # number of demand (read+write) misses
system.l2.demand_misses::cpu.data             1710491                       # number of demand (read+write) misses
system.l2.demand_misses::total                1710838                       # number of demand (read+write) misses
system.l2.overall_misses::cpu.inst                347                       # number of overall misses
system.l2.overall_misses::cpu.data            1710491                       # number of overall misses
system.l2.overall_misses::total               1710838                       # number of overall misses
system.l2.ReadExReq_miss_latency::cpu.data   1196949500                       # number of ReadExReq miss cycles
system.l2.ReadExReq_miss_latency::total    1196949500                       # number of ReadExReq miss cycles
system.l2.ReadCleanReq_miss_latency::cpu.inst     62814000                       # number of ReadCleanReq miss cycles
system.l2.ReadCleanReq_miss_latency::total     62814000                       # number of ReadCleanReq miss cycles
system.l2.ReadSharedReq_miss_latency::cpu.data  63532853500                       # number of ReadSharedReq miss cycles
system.l2.ReadSharedReq_miss_latency::total  63532853500                       # number of ReadSharedReq miss cycles
system.l2.demand_miss_latency::cpu.inst      62814000                       # number of demand (read+write) miss cycles
system.l2.demand_miss_latency::cpu.data   64729803000                       # number of demand (read+write) miss cycles
system.l2.demand_miss_latency::total      64792617000                       # number of demand (read+write) miss cycles
system.l2.overall_miss_latency::cpu.inst     62814000                       # number of overall miss cycles
system.l2.overall_miss_latency::cpu.data  64729803000                       # number of overall miss cycles
system.l2.overall_miss_latency::total     64792617000                       # number of overall miss cycles
system.l2.WritebackDirty_accesses::writebacks      1433048                       # number of WritebackDirty accesses(hits+misses)
system.l2.WritebackDirty_accesses::total      1433048                       # number of WritebackDirty accesses(hits+misses)
system.l2.WritebackClean_accesses::writebacks           38                       # number of WritebackClean accesses(hits+misses)
system.l2.WritebackClean_accesses::total           38                       # number of WritebackClean accesses(hits+misses)
system.l2.ReadExReq_accesses::cpu.data          20139                       # number of ReadExReq accesses(hits+misses)
system.l2.ReadExReq_accesses::total             20139                       # number of ReadExReq accesses(hits+misses)
system.l2.ReadCleanReq_accesses::cpu.inst          347                       # number of ReadCleanReq accesses(hits+misses)
system.l2.ReadCleanReq_accesses::total            347                       # number of ReadCleanReq accesses(hits+misses)
system.l2.ReadSharedReq_accesses::cpu.data      3106428                       # number of ReadSharedReq accesses(hits+misses)
system.l2.ReadSharedReq_accesses::total       3106428                       # number of ReadSharedReq accesses(hits+misses)
system.l2.demand_accesses::cpu.inst               347                       # number of demand (read+write) accesses
system.l2.demand_accesses::cpu.data           3126567                       # number of demand (read+write) accesses
system.l2.demand_accesses::total              3126914                       # number of demand (read+write) accesses
system.l2.overall_accesses::cpu.inst              347                       # number of overall (read+write) accesses
system.l2.overall_accesses::cpu.data          3126567                       # number of overall (read+write) accesses
system.l2.overall_accesses::total             3126914                       # number of overall (read+write) accesses
system.l2.ReadExReq_miss_rate::cpu.data      0.843835                       # miss rate for ReadExReq accesses
system.l2.ReadExReq_miss_rate::total         0.843835                       # miss rate for ReadExReq accesses
system.l2.ReadCleanReq_miss_rate::cpu.inst            1                       # miss rate for ReadCleanReq accesses
system.l2.ReadCleanReq_miss_rate::total             1                       # miss rate for ReadCleanReq accesses
system.l2.ReadSharedReq_miss_rate::cpu.data     0.545159                       # miss rate for ReadSharedReq accesses
system.l2.ReadSharedReq_miss_rate::total     0.545159                       # miss rate for ReadSharedReq accesses
system.l2.demand_miss_rate::cpu.inst                1                       # miss rate for demand accesses
system.l2.demand_miss_rate::cpu.data         0.547083                       # miss rate for demand accesses
system.l2.demand_miss_rate::total            0.547133                       # miss rate for demand accesses
system.l2.overall_miss_rate::cpu.inst               1                       # miss rate for overall accesses
system.l2.overall_miss_rate::cpu.data        0.547083                       # miss rate for overall accesses
system.l2.overall_miss_rate::total           0.547133                       # miss rate for overall accesses
system.l2.ReadExReq_avg_miss_latency::cpu.data 70433.653054                       # average ReadExReq miss latency
system.l2.ReadExReq_avg_miss_latency::total 70433.653054                       # average ReadExReq miss latency
system.l2.ReadCleanReq_avg_miss_latency::cpu.inst 181020.172911                       # average ReadCleanReq miss latency
system.l2.ReadCleanReq_avg_miss_latency::total 181020.172911                       # average ReadCleanReq miss latency
system.l2.ReadSharedReq_avg_miss_latency::cpu.data 37515.775641                       # average ReadSharedReq miss latency
system.l2.ReadSharedReq_avg_miss_latency::total 37515.775641                       # average ReadSharedReq miss latency
system.l2.demand_avg_miss_latency::cpu.inst 181020.172911                       # average overall miss latency
system.l2.demand_avg_miss_latency::cpu.data 37842.819986                       # average overall miss latency
system.l2.demand_avg_miss_latency::total 37871.859872                       # average overall miss latency
system.l2.overall_avg_miss_latency::cpu.inst 181020.172911                       # average overall miss latency
system.l2.overall_avg_miss_latency::cpu.data 37842.819986                       # average overall miss latency
system.l2.overall_avg_miss_latency::total 37871.859872                       # average overall miss latency
system.l2.blocked_cycles::no_mshrs                  0                       # number of cycles access was blocked
system.l2.blocked_cycles::no_targets                0                       # number of cycles access was blocked
system.l2.blocked::no_mshrs                         0                       # number of cycles access was blocked
system.l2.blocked::no_targets                       0                       # number of cycles access was blocked
system.l2.avg_blocked_cycles::no_mshrs            nan                       # average number of cycles each access was blocked
system.l2.avg_blocked_cycles::no_targets          nan                       # average number of cycles each access was blocked
system.l2.writebacks::writebacks              1708427                       # number of writebacks
system.l2.writebacks::total                   1708427                       # number of writebacks
system.l2.ReadExReq_mshr_misses::cpu.data        16994                       # number of ReadExReq MSHR misses
system.l2.ReadExReq_mshr_misses::total          16994                       # number of ReadExReq MSHR misses
system.l2.ReadCleanReq_mshr_misses::cpu.inst          347                       # number of ReadCleanReq MSHR misses
system.l2.ReadCleanReq_mshr_misses::total          347                       # number of ReadCleanReq MSHR misses
system.l2.ReadSharedReq_mshr_misses::cpu.data      1693497                       # number of ReadSharedReq MSHR misses
system.l2.ReadSharedReq_mshr_misses::total      1693497                       # number of ReadSharedReq MSHR misses
system.l2.demand_mshr_misses::cpu.inst            347                       # number of demand (read+write) MSHR misses
system.l2.demand_mshr_misses::cpu.data        1710491                       # number of demand (read+write) MSHR misses
system.l2.demand_mshr_misses::total           1710838                       # number of demand (read+write) MSHR misses
system.l2.overall_mshr_misses::cpu.inst           347                       # number of overall MSHR misses
system.l2.overall_mshr_misses::cpu.data       1710491                       # number of overall MSHR misses
system.l2.overall_mshr_misses::total          1710838                       # number of overall MSHR misses
system.l2.ReadExReq_mshr_miss_latency::cpu.data   1027009500                       # number of ReadExReq MSHR miss cycles
system.l2.ReadExReq_mshr_miss_latency::total   1027009500                       # number of ReadExReq MSHR miss cycles
system.l2.ReadCleanReq_mshr_miss_latency::cpu.inst     59344000                       # number of ReadCleanReq MSHR miss cycles
system.l2.ReadCleanReq_mshr_miss_latency::total     59344000                       # number of ReadCleanReq MSHR miss cycles
system.l2.ReadSharedReq_mshr_miss_latency::cpu.data  46597883500                       # number of ReadSharedReq MSHR miss cycles
system.l2.ReadSharedReq_mshr_miss_latency::total  46597883500                       # number of ReadSharedReq MSHR miss cycles
system.l2.demand_mshr_miss_latency::cpu.inst     59344000                       # number of demand (read+write) MSHR miss cycles
system.l2.demand_mshr_miss_latency::cpu.data  47624893000                       # number of demand (read+write) MSHR miss cycles
system.l2.demand_mshr_miss_latency::total  47684237000                       # number of demand (read+write) MSHR miss cycles
system.l2.overall_mshr_miss_latency::cpu.inst     59344000                       # number of overall MSHR miss cycles
system.l2.overall_mshr_miss_latency::cpu.data  47624893000                       # number of overall MSHR miss cycles
system.l2.overall_mshr_miss_latency::total  47684237000                       # number of overall MSHR miss cycles
system.l2.ReadExReq_mshr_miss_rate::cpu.data     0.843835                       # mshr miss rate for ReadExReq accesses
system.l2.ReadExReq_mshr_miss_rate::total     0.843835                       # mshr miss rate for ReadExReq accesses
system.l2.ReadCleanReq_mshr_miss_rate::cpu.inst            1                       # mshr miss rate for ReadCleanReq accesses
system.l2.ReadCleanReq_mshr_miss_rate::total            1                       # mshr miss rate for ReadCleanReq accesses
system.l2.ReadSharedReq_mshr_miss_rate::cpu.data     0.545159                       # mshr miss rate for ReadSharedReq accesses
system.l2.ReadSharedReq_mshr_miss_rate::total     0.545159                       # mshr miss rate for ReadSharedReq accesses
system.l2.demand_mshr_miss_rate::cpu.inst            1                       # mshr miss rate for demand accesses
system.l2.demand_mshr_miss_rate::cpu.data     0.547083                       # mshr miss rate for demand accesses
system.l2.demand_mshr_miss_rate::total       0.547133                       # mshr miss rate for demand accesses
system.l2.overall_mshr_miss_rate::cpu.inst            1                       # mshr miss rate for overall accesses
system.l2.overall_mshr_miss_rate::cpu.data     0.547083                       # mshr miss rate for overall accesses
system.l2.overall_mshr_miss_rate::total      0.547133                       # mshr miss rate for overall accesses
system.l2.ReadExReq_avg_mshr_miss_latency::cpu.data 60433.653054                       # average ReadExReq mshr miss latency
system.l2.ReadExReq_avg_mshr_miss_latency::total 60433.653054                       # average ReadExReq mshr miss latency
system.l2.ReadCleanReq_avg_mshr_miss_latency::cpu.inst 171020.172911                       # average ReadCleanReq mshr miss latency
system.l2.ReadCleanReq_avg_mshr_miss_latency::total 171020.172911                       # average ReadCleanReq mshr miss latency
system.l2.ReadSharedReq_avg_mshr_miss_latency::cpu.data 27515.775641                       # average ReadSharedReq mshr miss latency
system.l2.ReadSharedReq_avg_mshr_miss_latency::total 27515.775641                       # average ReadSharedReq mshr miss latency
system.l2.demand_avg_mshr_miss_latency::cpu.inst 171020.172911                       # average overall mshr miss latency
system.l2.demand_avg_mshr_miss_latency::cpu.data 27842.819986                       # average overall mshr miss latency
system.l2.demand_avg_mshr_miss_latency::total 27871.859872                       # average overall mshr miss latency
system.l2.overall_avg_mshr_miss_latency::cpu.inst 171020.172911                       # average overall mshr miss latency
system.l2.overall_avg_mshr_miss_latency::cpu.data 27842.819986                       # average overall mshr miss latency
system.l2.overall_avg_mshr_miss_latency::total 27871.859872                       # average overall mshr miss latency
system.l2.replacements                        1708808                       # number of replacements
system.l3.tags.pwrStateResidencyTicks::UNDEFINED 1972833983000                       # Cumulative time (in ticks) in various power states
system.l3.tags.tagsinuse                 14222.563477                       # Cycle average of tags in use
system.l3.tags.total_refs                     3419357                       # Total number of references to valid blocks.
system.l3.tags.sampled_refs                     17448                       # Sample count of references to valid blocks.
system.l3.tags.avg_refs                    195.974152                       # Average number of references to valid blocks.
system.l3.tags.warmup_cycle                    418000                       # Cycle when the warmup percentage was hit.
system.l3.tags.occ_blocks::cpu.inst        142.002060                       # Average occupied blocks per requestor
system.l3.tags.occ_blocks::cpu.data      14080.561417                       # Average occupied blocks per requestor
system.l3.tags.occ_percent::cpu.inst         0.008667                       # Average percentage of cache occupancy
system.l3.tags.occ_percent::cpu.data         0.859409                       # Average percentage of cache occupancy
system.l3.tags.occ_percent::total            0.868076                       # Average percentage of cache occupancy
system.l3.tags.occ_task_id_blocks::1024         16384                       # Occupied blocks per task id
system.l3.tags.age_task_id_blocks_1024::0           21                       # Occupied blocks per task id
system.l3.tags.age_task_id_blocks_1024::1           42                       # Occupied blocks per task id
system.l3.tags.age_task_id_blocks_1024::2            3                       # Occupied blocks per task id
system.l3.tags.age_task_id_blocks_1024::3           26                       # Occupied blocks per task id
system.l3.tags.age_task_id_blocks_1024::4        16292                       # Occupied blocks per task id
system.l3.tags.occ_task_id_percent::1024            1                       # Percentage of cache occupancy per task id
system.l3.tags.tag_accesses                  13694876                       # Number of tag accesses
system.l3.tags.data_accesses                 13694876                       # Number of data accesses
system.l3.pwrStateResidencyTicks::UNDEFINED 1972833983000                       # Cumulative time (in ticks) in various power states
system.l3.WritebackDirty_hits::writebacks      1708427                       # number of WritebackDirty hits
system.l3.WritebackDirty_hits::total          1708427                       # number of WritebackDirty hits
system.l3.ReadExReq_hits::cpu.data                  1                       # number of ReadExReq hits
system.l3.ReadExReq_hits::total                     1                       # number of ReadExReq hits
system.l3.ReadSharedReq_hits::cpu.data        1693389                       # number of ReadSharedReq hits
system.l3.ReadSharedReq_hits::total           1693389                       # number of ReadSharedReq hits
system.l3.demand_hits::cpu.data               1693390                       # number of demand (read+write) hits
system.l3.demand_hits::total                  1693390                       # number of demand (read+write) hits
system.l3.overall_hits::cpu.data              1693390                       # number of overall hits
system.l3.overall_hits::total                 1693390                       # number of overall hits
system.l3.ReadExReq_misses::cpu.data            16993                       # number of ReadExReq misses
system.l3.ReadExReq_misses::total               16993                       # number of ReadExReq misses
system.l3.ReadSharedReq_misses::cpu.inst          347                       # number of ReadSharedReq misses
system.l3.ReadSharedReq_misses::cpu.data          108                       # number of ReadSharedReq misses
system.l3.ReadSharedReq_misses::total             455                       # number of ReadSharedReq misses
system.l3.demand_misses::cpu.inst                 347                       # number of demand (read+write) misses
system.l3.demand_misses::cpu.data               17101                       # number of demand (read+write) misses
system.l3.demand_misses::total                  17448                       # number of demand (read+write) misses
system.l3.overall_misses::cpu.inst                347                       # number of overall misses
system.l3.overall_misses::cpu.data              17101                       # number of overall misses
system.l3.overall_misses::total                 17448                       # number of overall misses
system.l3.ReadExReq_miss_latency::cpu.data    840059000                       # number of ReadExReq miss cycles
system.l3.ReadExReq_miss_latency::total     840059000                       # number of ReadExReq miss cycles
system.l3.ReadSharedReq_miss_latency::cpu.inst     55527000                       # number of ReadSharedReq miss cycles
system.l3.ReadSharedReq_miss_latency::cpu.data     28498000                       # number of ReadSharedReq miss cycles
system.l3.ReadSharedReq_miss_latency::total     84025000                       # number of ReadSharedReq miss cycles
system.l3.demand_miss_latency::cpu.inst      55527000                       # number of demand (read+write) miss cycles
system.l3.demand_miss_latency::cpu.data     868557000                       # number of demand (read+write) miss cycles
system.l3.demand_miss_latency::total        924084000                       # number of demand (read+write) miss cycles
system.l3.overall_miss_latency::cpu.inst     55527000                       # number of overall miss cycles
system.l3.overall_miss_latency::cpu.data    868557000                       # number of overall miss cycles
system.l3.overall_miss_latency::total       924084000                       # number of overall miss cycles
system.l3.WritebackDirty_accesses::writebacks      1708427                       # number of WritebackDirty accesses(hits+misses)
system.l3.WritebackDirty_accesses::total      1708427                       # number of WritebackDirty accesses(hits+misses)
system.l3.ReadExReq_accesses::cpu.data          16994                       # number of ReadExReq accesses(hits+misses)
system.l3.ReadExReq_accesses::total             16994                       # number of ReadExReq accesses(hits+misses)
system.l3.ReadSharedReq_accesses::cpu.inst          347                       # number of ReadSharedReq accesses(hits+misses)
system.l3.ReadSharedReq_accesses::cpu.data      1693497                       # number of ReadSharedReq accesses(hits+misses)
system.l3.ReadSharedReq_accesses::total       1693844                       # number of ReadSharedReq accesses(hits+misses)
system.l3.demand_accesses::cpu.inst               347                       # number of demand (read+write) accesses
system.l3.demand_accesses::cpu.data           1710491                       # number of demand (read+write) accesses
system.l3.demand_accesses::total              1710838                       # number of demand (read+write) accesses
system.l3.overall_accesses::cpu.inst              347                       # number of overall (read+write) accesses
system.l3.overall_accesses::cpu.data          1710491                       # number of overall (read+write) accesses
system.l3.overall_accesses::total             1710838                       # number of overall (read+write) accesses
system.l3.ReadExReq_miss_rate::cpu.data      0.999941                       # miss rate for ReadExReq accesses
system.l3.ReadExReq_miss_rate::total         0.999941                       # miss rate for ReadExReq accesses
system.l3.ReadSharedReq_miss_rate::cpu.inst            1                       # miss rate for ReadSharedReq accesses
system.l3.ReadSharedReq_miss_rate::cpu.data     0.000064                       # miss rate for ReadSharedReq accesses
system.l3.ReadSharedReq_miss_rate::total     0.000269                       # miss rate for ReadSharedReq accesses
system.l3.demand_miss_rate::cpu.inst                1                       # miss rate for demand accesses
system.l3.demand_miss_rate::cpu.data         0.009998                       # miss rate for demand accesses
system.l3.demand_miss_rate::total            0.010199                       # miss rate for demand accesses
system.l3.overall_miss_rate::cpu.inst               1                       # miss rate for overall accesses
system.l3.overall_miss_rate::cpu.data        0.009998                       # miss rate for overall accesses
system.l3.overall_miss_rate::total           0.010199                       # miss rate for overall accesses
system.l3.ReadExReq_avg_miss_latency::cpu.data 49435.591126                       # average ReadExReq miss latency
system.l3.ReadExReq_avg_miss_latency::total 49435.591126                       # average ReadExReq miss latency
system.l3.ReadSharedReq_avg_miss_latency::cpu.inst 160020.172911                       # average ReadSharedReq miss latency
system.l3.ReadSharedReq_avg_miss_latency::cpu.data 263870.370370                       # average ReadSharedReq miss latency
system.l3.ReadSharedReq_avg_miss_latency::total 184670.329670                       # average ReadSharedReq miss latency
system.l3.demand_avg_miss_latency::cpu.inst 160020.172911                       # average overall miss latency
system.l3.demand_avg_miss_latency::cpu.data 50789.836852                       # average overall miss latency
system.l3.demand_avg_miss_latency::total 52962.173315                       # average overall miss latency
system.l3.overall_avg_miss_latency::cpu.inst 160020.172911                       # average overall miss latency
system.l3.overall_avg_miss_latency::cpu.data 50789.836852                       # average overall miss latency
system.l3.overall_avg_miss_latency::total 52962.173315                       # average overall miss latency
system.l3.blocked_cycles::no_mshrs                  0                       # number of cycles access was blocked
system.l3.blocked_cycles::no_targets                0                       # number of cycles access was blocked
system.l3.blocked::no_mshrs                         0                       # number of cycles access was blocked
system.l3.blocked::no_targets                       0                       # number of cycles access was blocked
system.l3.avg_blocked_cycles::no_mshrs            nan                       # average number of cycles each access was blocked
system.l3.avg_blocked_cycles::no_targets          nan                       # average number of cycles each access was blocked
system.l3.writebacks::writebacks                  691                       # number of writebacks
system.l3.writebacks::total                       691                       # number of writebacks
system.l3.ReadExReq_mshr_misses::cpu.data        16993                       # number of ReadExReq MSHR misses
system.l3.ReadExReq_mshr_misses::total          16993                       # number of ReadExReq MSHR misses
system.l3.ReadSharedReq_mshr_misses::cpu.inst          347                       # number of ReadSharedReq MSHR misses
system.l3.ReadSharedReq_mshr_misses::cpu.data          108                       # number of ReadSharedReq MSHR misses
system.l3.ReadSharedReq_mshr_misses::total          455                       # number of ReadSharedReq MSHR misses
system.l3.demand_mshr_misses::cpu.inst            347                       # number of demand (read+write) MSHR misses
system.l3.demand_mshr_misses::cpu.data          17101                       # number of demand (read+write) MSHR misses
system.l3.demand_mshr_misses::total             17448                       # number of demand (read+write) MSHR misses
system.l3.overall_mshr_misses::cpu.inst           347                       # number of overall MSHR misses
system.l3.overall_mshr_misses::cpu.data         17101                       # number of overall MSHR misses
system.l3.overall_mshr_misses::total            17448                       # number of overall MSHR misses
system.l3.ReadExReq_mshr_miss_latency::cpu.data    568171000                       # number of ReadExReq MSHR miss cycles
system.l3.ReadExReq_mshr_miss_latency::total    568171000                       # number of ReadExReq MSHR miss cycles
system.l3.ReadSharedReq_mshr_miss_latency::cpu.inst     49975000                       # number of ReadSharedReq MSHR miss cycles
system.l3.ReadSharedReq_mshr_miss_latency::cpu.data     26770000                       # number of ReadSharedReq MSHR miss cycles
system.l3.ReadSharedReq_mshr_miss_latency::total     76745000                       # number of ReadSharedReq MSHR miss cycles
system.l3.demand_mshr_miss_latency::cpu.inst     49975000                       # number of demand (read+write) MSHR miss cycles
system.l3.demand_mshr_miss_latency::cpu.data    594941000                       # number of demand (read+write) MSHR miss cycles
system.l3.demand_mshr_miss_latency::total    644916000                       # number of demand (read+write) MSHR miss cycles
system.l3.overall_mshr_miss_latency::cpu.inst     49975000                       # number of overall MSHR miss cycles
system.l3.overall_mshr_miss_latency::cpu.data    594941000                       # number of overall MSHR miss cycles
system.l3.overall_mshr_miss_latency::total    644916000                       # number of overall MSHR miss cycles
system.l3.ReadExReq_mshr_miss_rate::cpu.data     0.999941                       # mshr miss rate for ReadExReq accesses
system.l3.ReadExReq_mshr_miss_rate::total     0.999941                       # mshr miss rate for ReadExReq accesses
system.l3.ReadSharedReq_mshr_miss_rate::cpu.inst            1                       # mshr miss rate for ReadSharedReq accesses
system.l3.ReadSharedReq_mshr_miss_rate::cpu.data     0.000064                       # mshr miss rate for ReadSharedReq accesses
system.l3.ReadSharedReq_mshr_miss_rate::total     0.000269                       # mshr miss rate for ReadSharedReq accesses
system.l3.demand_mshr_miss_rate::cpu.inst            1                       # mshr miss rate for demand accesses
system.l3.demand_mshr_miss_rate::cpu.data     0.009998                       # mshr miss rate for demand accesses
system.l3.demand_mshr_miss_rate::total       0.010199                       # mshr miss rate for demand accesses
system.l3.overall_mshr_miss_rate::cpu.inst            1                       # mshr miss rate for overall accesses
system.l3.overall_mshr_miss_rate::cpu.data     0.009998                       # mshr miss rate for overall accesses
system.l3.overall_mshr_miss_rate::total      0.010199                       # mshr miss rate for overall accesses
system.l3.ReadExReq_avg_mshr_miss_latency::cpu.data 33435.591126                       # average ReadExReq mshr miss latency
system.l3.ReadExReq_avg_mshr_miss_latency::total 33435.591126                       # average ReadExReq mshr miss latency
system.l3.ReadSharedReq_avg_mshr_miss_latency::cpu.inst 144020.172911                       # average ReadSharedReq mshr miss latency
system.l3.ReadSharedReq_avg_mshr_miss_latency::cpu.data 247870.370370                       # average ReadSharedReq mshr miss latency
system.l3.ReadSharedReq_avg_mshr_miss_latency::total 168670.329670                       # average ReadSharedReq mshr miss latency
system.l3.demand_avg_mshr_miss_latency::cpu.inst 144020.172911                       # average overall mshr miss latency
system.l3.demand_avg_mshr_miss_latency::cpu.data 34789.836852                       # average overall mshr miss latency
system.l3.demand_avg_mshr_miss_latency::total 36962.173315                       # average overall mshr miss latency
system.l3.overall_avg_mshr_miss_latency::cpu.inst 144020.172911                       # average overall mshr miss latency
system.l3.overall_avg_mshr_miss_latency::cpu.data 34789.836852                       # average overall mshr miss latency
system.l3.overall_avg_mshr_miss_latency::total 36962.173315                       # average overall mshr miss latency
system.l3.replacements                           1064                       # number of replacements
system.membus.snoop_filter.tot_requests         18231                       # Total number of requests made to the snoop filter.
system.membus.snoop_filter.hit_single_requests          783                       # Number of requests hitting in the snoop filter with a single holder of the requested data.
system.membus.snoop_filter.hit_multi_requests            0                       # Number of requests hitting in the snoop filter with multiple (>1) holders of the requested data.
system.membus.snoop_filter.tot_snoops               0                       # Total number of snoops made to the snoop filter.
system.membus.snoop_filter.hit_single_snoops            0                       # Number of snoops hitting in the snoop filter with a single holder of the requested data.
system.membus.snoop_filter.hit_multi_snoops            0                       # Number of snoops hitting in the snoop filter with multiple (>1) holders of the requested data.
system.membus.pwrStateResidencyTicks::UNDEFINED 1972833983000                       # Cumulative time (in ticks) in various power states
system.membus.trans_dist::ReadResp                455                       # Transaction distribution
system.membus.trans_dist::WritebackDirty          691                       # Transaction distribution
system.membus.trans_dist::CleanEvict               92                       # Transaction distribution
system.membus.trans_dist::ReadExReq             16993                       # Transaction distribution
system.membus.trans_dist::ReadExResp            16993                       # Transaction distribution
system.membus.trans_dist::ReadSharedReq           455                       # Transaction distribution
system.membus.pkt_count_system.l3.mem_side::system.mem_ctrls.port        35679                       # Packet count per connected master and slave (bytes)
system.membus.pkt_count_system.l3.mem_side::total        35679                       # Packet count per connected master and slave (bytes)
system.membus.pkt_count::total                  35679                       # Packet count per connected master and slave (bytes)
system.membus.pkt_size_system.l3.mem_side::system.mem_ctrls.port      1160896                       # Cumulative packet size per connected master and slave (bytes)
system.membus.pkt_size_system.l3.mem_side::total      1160896                       # Cumulative packet size per connected master and slave (bytes)
system.membus.pkt_size::total                 1160896                       # Cumulative packet size per connected master and slave (bytes)
system.membus.snoops                                0                       # Total snoops (count)
system.membus.snoopTraffic                          0                       # Total snoop traffic (bytes)
system.membus.snoop_fanout::samples             17448                       # Request fanout histogram
system.membus.snoop_fanout::mean                    0                       # Request fanout histogram
system.membus.snoop_fanout::stdev                   0                       # Request fanout histogram
system.membus.snoop_fanout::underflows              0      0.00%      0.00% # Request fanout histogram
system.membus.snoop_fanout::0                   17448    100.00%    100.00% # Request fanout histogram
system.membus.snoop_fanout::1                       0      0.00%    100.00% # Request fanout histogram
system.membus.snoop_fanout::overflows               0      0.00%    100.00% # Request fanout histogram
system.membus.snoop_fanout::min_value               0                       # Request fanout histogram
system.membus.snoop_fanout::max_value               0                       # Request fanout histogram
system.membus.snoop_fanout::total               17448                       # Request fanout histogram
system.membus.reqLayer2.occupancy            20997000                       # Layer occupancy (ticks)
system.membus.reqLayer2.utilization               0.0                       # Layer utilization (%)
system.membus.respLayer1.occupancy           87242000                       # Layer occupancy (ticks)
system.membus.respLayer1.utilization              0.0                       # Layer utilization (%)
system.tol2bus.snoop_filter.tot_requests      6253007                       # Total number of requests made to the snoop filter.
system.tol2bus.snoop_filter.hit_single_requests      3126093                       # Number of requests hitting in the snoop filter with a single holder of the requested data.
system.tol2bus.snoop_filter.hit_multi_requests            0                       # Number of requests hitting in the snoop filter with multiple (>1) holders of the requested data.
system.tol2bus.snoop_filter.tot_snoops            570                       # Total number of snoops made to the snoop filter.
system.tol2bus.snoop_filter.hit_single_snoops          570                       # Number of snoops hitting in the snoop filter with a single holder of the requested data.
system.tol2bus.snoop_filter.hit_multi_snoops            0                       # Number of snoops hitting in the snoop filter with multiple (>1) holders of the requested data.
system.tol2bus.pwrStateResidencyTicks::UNDEFINED 1972833983000                       # Cumulative time (in ticks) in various power states
system.tol2bus.trans_dist::ReadResp           3106775                       # Transaction distribution
system.tol2bus.trans_dist::WritebackDirty      3142166                       # Transaction distribution
system.tol2bus.trans_dist::WritebackClean           38                       # Transaction distribution
system.tol2bus.trans_dist::CleanEvict         1693761                       # Transaction distribution
system.tol2bus.trans_dist::ReadExReq            20139                       # Transaction distribution
system.tol2bus.trans_dist::ReadExResp           20139                       # Transaction distribution
system.tol2bus.trans_dist::ReadCleanReq           347                       # Transaction distribution
system.tol2bus.trans_dist::ReadSharedReq      3106428                       # Transaction distribution
system.tol2bus.pkt_count_system.cpu.icache.mem_side::system.l2.cpu_side          732                       # Packet count per connected master and slave (bytes)
system.tol2bus.pkt_count_system.cpu.dcache.mem_side::system.l2.cpu_side      9379189                       # Packet count per connected master and slave (bytes)
system.tol2bus.pkt_count::total               9379921                       # Packet count per connected master and slave (bytes)
system.tol2bus.pkt_size_system.cpu.icache.mem_side::system.l2.cpu_side        24640                       # Cumulative packet size per connected master and slave (bytes)
system.tol2bus.pkt_size_system.cpu.dcache.mem_side::system.l2.cpu_side    291815360                       # Cumulative packet size per connected master and slave (bytes)
system.tol2bus.pkt_size::total              291840000                       # Cumulative packet size per connected master and slave (bytes)
system.tol2bus.snoops                         1709872                       # Total snoops (count)
system.tol2bus.snoopTraffic                 109383552                       # Total snoop traffic (bytes)
system.tol2bus.snoop_fanout::samples          4836786                       # Request fanout histogram
system.tol2bus.snoop_fanout::mean            0.000118                       # Request fanout histogram
system.tol2bus.snoop_fanout::stdev           0.010855                       # Request fanout histogram
system.tol2bus.snoop_fanout::underflows             0      0.00%      0.00% # Request fanout histogram
system.tol2bus.snoop_fanout::0                4836216     99.99%     99.99% # Request fanout histogram
system.tol2bus.snoop_fanout::1                    570      0.01%    100.00% # Request fanout histogram
system.tol2bus.snoop_fanout::2                      0      0.00%    100.00% # Request fanout histogram
system.tol2bus.snoop_fanout::3                      0      0.00%    100.00% # Request fanout histogram
system.tol2bus.snoop_fanout::4                      0      0.00%    100.00% # Request fanout histogram
system.tol2bus.snoop_fanout::overflows              0      0.00%    100.00% # Request fanout histogram
system.tol2bus.snoop_fanout::min_value              0                       # Request fanout histogram
system.tol2bus.snoop_fanout::max_value              1                       # Request fanout histogram
system.tol2bus.snoop_fanout::total            4836786                       # Request fanout histogram
system.tol2bus.reqLayer0.occupancy         4559589500                       # Layer occupancy (ticks)
system.tol2bus.reqLayer0.utilization              0.2                       # Layer utilization (%)
system.tol2bus.respLayer0.occupancy            520500                       # Layer occupancy (ticks)
system.tol2bus.respLayer0.utilization             0.0                       # Layer utilization (%)
system.tol2bus.respLayer1.occupancy        4689850500                       # Layer occupancy (ticks)
system.tol2bus.respLayer1.utilization             0.2                       # Layer utilization (%)
system.tol3bus.pwrStateResidencyTicks::UNDEFINED 1972833983000                       # Cumulative time (in ticks) in various power states
system.tol3bus.trans_dist::ReadResp           1693844                       # Transaction distribution
system.tol3bus.trans_dist::WritebackDirty      1709118                       # Transaction distribution
system.tol3bus.trans_dist::CleanEvict             465                       # Transaction distribution
system.tol3bus.trans_dist::ReadExReq            16994                       # Transaction distribution
system.tol3bus.trans_dist::ReadExResp           16994                       # Transaction distribution
system.tol3bus.trans_dist::ReadSharedReq      1693844                       # Transaction distribution
system.tol3bus.pkt_count_system.l2.mem_side::system.l3.cpu_side      5130195                       # Packet count per connected master and slave (bytes)
system.tol3bus.pkt_size_system.l2.mem_side::system.l3.cpu_side    218832960                       # Cumulative packet size per connected master and slave (bytes)
system.tol3bus.snoops                            1064                       # Total snoops (count)
system.tol3bus.snoopTraffic                     44224                       # Total snoop traffic (bytes)
system.tol3bus.snoop_fanout::samples          3420421                       # Request fanout histogram
system.tol3bus.snoop_fanout::mean            0.000311                       # Request fanout histogram
system.tol3bus.snoop_fanout::stdev           0.017635                       # Request fanout histogram
system.tol3bus.snoop_fanout::underflows             0      0.00%      0.00% # Request fanout histogram
system.tol3bus.snoop_fanout::0                3419357     99.97%     99.97% # Request fanout histogram
system.tol3bus.snoop_fanout::1                   1064      0.03%    100.00% # Request fanout histogram
system.tol3bus.snoop_fanout::overflows              0      0.00%    100.00% # Request fanout histogram
system.tol3bus.snoop_fanout::min_value              0                       # Request fanout histogram
system.tol3bus.snoop_fanout::max_value              1                       # Request fanout histogram
system.tol3bus.snoop_fanout::total            3420421                       # Request fanout histogram
system.tol3bus.reqLayer0.occupancy         3418105500                       # Layer occupancy (ticks)
system.tol3bus.reqLayer0.utilization              0.2                       # Layer utilization (%)
system.tol3bus.respLayer0.occupancy        2566257000                       # Layer occupancy (ticks)
system.tol3bus.respLayer0.utilization             0.1                       # Layer utilization (%)

---------- End Simulation Statistics   ----------
